WIDTH=8;
DEPTH=256;

ADDRESS_RADIX=HEX;
DATA_RADIX=HEX;

CONTENT BEGIN
    00 : 4E; 
    01 : E4;
    02 : 44;
    03 : AE;
    04 : 34;
    05 : 62;
    06 : 83;
    07 : 6E;
    08 : 76;
    09 : 2E;
    0A : D4;
    0B : 20;
    0C : BD;
    0D : E2;
    0E : F5;
    0F : 08;
    10 : E4;
    11 : BD;
    12 : 08;
    13 : A2;
    14 : 88;
    15 : 51;
    16 : F4;
    17 : 59;
    18 : 66;
    19 : 74;
    1A : 53;
    1B : 5D;
    1C : 8B;
    1D : 52;
    1E : A0;
    1F : E3;
    20 : 3C;
    21 : F6;
    22 : CB;
    23 : 6F;
    24 : 46;
    25 : 07;
    26 : BD;
    27 : 45;
    28 : C1;
    29 : 7C;
    2A : 96;
    2B : BC;
    2C : 46;
    2D : 1B;
    2E : 37;
    2F : 3E;
    30 : C3;
    31 : A5;
    32 : 87;
    33 : 69;
    34 : ED;
    35 : AB;
    36 : 52;
    37 : 2C;
    38 : 4B;
    39 : 9C;
    3A : 26;
    3B : F7;
    3C : 47;
    3D : B4;
    3E : 31;
    3F : 46;
    40 : F8;
    41 : 1C;
    42 : BE;
    43 : EB;
    44 : C8;
    45 : 4E;
    46 : 5A;
    47 : DF;
    48 : 71;
    49 : 38;
    4A : EB;
    4B : FA;
    4C : C3;
    4D : 07;
    4E : C5;
    [4F..FF] : 00; 

END;